omf/scratch/transmission/mapboxTest/manyCase9Scaled.m
function mpc = case9
%case9	This is an OMF.network() generated .m file created from the transmission network saved in case9.omt

%% MATPOWER Case Format : Version 2.0
mpc.version = '2.0';

%%-----  Power Flow Data  -----%%
%% system MVA base
mpc.baseMVA = 100;

%% bus data
%	bus_i	type	Pd	Qd	Gs	Bs	area	Vm	Va	baseKV	zone	Vmax	Vmin
mpc.bus = [
	344	2	0	0	0	0	1	1	0	345	1	1.1	0.9;
	345	2	0	0	0	0	1	1	0	345	1	1.1	0.9;
	346	1	0	0	0	0	1	1	0	345	1	1.1	0.9;
	347	1	90	30	0	0	1	1	0	345	1	1.1	0.9;
	340	1	100	35	0	0	1	1	0	345	1	1.1	0.9;
	341	1	0	0	0	0	1	1	0	345	1	1.1	0.9;
	342	1	125	50	0	0	1	1	0	345	1	1.1	0.9;
	343	3	0	0	0	0	1	1	0	345	1	1.1	0.9;
	348	1	0	0	0	0	1	1	0	345	1	1.1	0.9;
	349	1	100	35	0	0	1	1	0	345	1	1.1	0.9;
	1653	1	0	0	0	0	1	1	0	345	1	1.1	0.9;
	2318	1	90	30	0	0	1	1	0	345	1	1.1	0.9;
	2319	1	0	0	0	0	1	1	0	345	1	1.1	0.9;
	2316	2	0	0	0	0	1	1	0	345	1	1.1	0.9;
	2317	1	0	0	0	0	1	1	0	345	1	1.1	0.9;
	2314	3	0	0	0	0	1	1	0	345	1	1.1	0.9;
	2315	2	0	0	0	0	1	1	0	345	1	1.1	0.9;
	2312	1	0	0	0	0	1	1	0	345	1	1.1	0.9;
	2313	1	125	50	0	0	1	1	0	345	1	1.1	0.9;
	2310	1	0	0	0	0	1	1	0	345	1	1.1	0.9;
	2311	1	100	35	0	0	1	1	0	345	1	1.1	0.9;
	298	3	0	0	0	0	1	1	0	345	1	1.1	0.9;
	299	2	0	0	0	0	1	1	0	345	1	1.1	0.9;
	296	1	0	0	0	0	1	1	0	345	1	1.1	0.9;
	297	1	125	50	0	0	1	1	0	345	1	1.1	0.9;
	294	1	0	0	0	0	1	1	0	345	1	1.1	0.9;
	295	1	100	35	0	0	1	1	0	345	1	1.1	0.9;
	292	1	0	0	0	0	1	1	0	345	1	1.1	0.9;
	293	1	90	30	0	0	1	1	0	345	1	1.1	0.9;
	290	2	0	0	0	0	1	1	0	345	1	1.1	0.9;
	291	2	0	0	0	0	1	1	0	345	1	1.1	0.9;
	2147	1	90	30	0	0	1	1	0	345	1	1.1	0.9;
	270	1	125	50	0	0	1	1	0	345	1	1.1	0.9;
	271	3	0	0	0	0	1	1	0	345	1	1.1	0.9;
	272	2	0	0	0	0	1	1	0	345	1	1.1	0.9;
	273	2	0	0	0	0	1	1	0	345	1	1.1	0.9;
	274	1	0	0	0	0	1	1	0	345	1	1.1	0.9;
	275	1	90	30	0	0	1	1	0	345	1	1.1	0.9;
	276	1	0	0	0	0	1	1	0	345	1	1.1	0.9;
	277	1	100	35	0	0	1	1	0	345	1	1.1	0.9;
	278	1	0	0	0	0	1	1	0	345	1	1.1	0.9;
	279	1	125	50	0	0	1	1	0	345	1	1.1	0.9;
	1780	1	100	35	0	0	1	1	0	345	1	1.1	0.9;
	2146	1	0	0	0	0	1	1	0	345	1	1.1	0.9;
	2268	1	125	50	0	0	1	1	0	345	1	1.1	0.9;
	2269	3	0	0	0	0	1	1	0	345	1	1.1	0.9;
	2262	2	0	0	0	0	1	1	0	345	1	1.1	0.9;
	2263	1	0	0	0	0	1	1	0	345	1	1.1	0.9;
	2260	3	0	0	0	0	1	1	0	345	1	1.1	0.9;
	2261	2	0	0	0	0	1	1	0	345	1	1.1	0.9;
	2266	1	100	35	0	0	1	1	0	345	1	1.1	0.9;
	2267	1	0	0	0	0	1	1	0	345	1	1.1	0.9;
	2264	1	90	30	0	0	1	1	0	345	1	1.1	0.9;
	2265	1	0	0	0	0	1	1	0	345	1	1.1	0.9;
	2442	2	0	0	0	0	1	1	0	345	1	1.1	0.9;
	2443	1	0	0	0	0	1	1	0	345	1	1.1	0.9;
	2440	3	0	0	0	0	1	1	0	345	1	1.1	0.9;
	2441	2	0	0	0	0	1	1	0	345	1	1.1	0.9;
	1781	1	0	0	0	0	1	1	0	345	1	1.1	0.9;
	2447	1	0	0	0	0	1	1	0	345	1	1.1	0.9;
	2444	1	90	30	0	0	1	1	0	345	1	1.1	0.9;
	2445	1	0	0	0	0	1	1	0	345	1	1.1	0.9;
	2448	1	125	50	0	0	1	1	0	345	1	1.1	0.9;
	2449	3	0	0	0	0	1	1	0	345	1	1.1	0.9;
	2189	2	0	0	0	0	1	1	0	345	1	1.1	0.9;
	108	1	125	50	0	0	1	1	0	345	1	1.1	0.9;
	109	3	0	0	0	0	1	1	0	345	1	1.1	0.9;
	102	2	0	0	0	0	1	1	0	345	1	1.1	0.9;
	103	1	0	0	0	0	1	1	0	345	1	1.1	0.9;
	100	3	0	0	0	0	1	1	0	345	1	1.1	0.9;
	101	2	0	0	0	0	1	1	0	345	1	1.1	0.9;
	106	1	100	35	0	0	1	1	0	345	1	1.1	0.9;
	107	1	0	0	0	0	1	1	0	345	1	1.1	0.9;
	104	1	90	30	0	0	1	1	0	345	1	1.1	0.9;
	105	1	0	0	0	0	1	1	0	345	1	1.1	0.9;
	2046	2	0	0	0	0	1	1	0	345	1	1.1	0.9;
	2047	1	0	0	0	0	1	1	0	345	1	1.1	0.9;
	2044	3	0	0	0	0	1	1	0	345	1	1.1	0.9;
	2045	2	0	0	0	0	1	1	0	345	1	1.1	0.9;
	2042	1	0	0	0	0	1	1	0	345	1	1.1	0.9;
	2043	1	125	50	0	0	1	1	0	345	1	1.1	0.9;
	2040	1	0	0	0	0	1	1	0	345	1	1.1	0.9;
	2041	1	100	35	0	0	1	1	0	345	1	1.1	0.9;
	2048	1	90	30	0	0	1	1	0	345	1	1.1	0.9;
	2049	1	0	0	0	0	1	1	0	345	1	1.1	0.9;
	1372	1	0	0	0	0	1	1	0	345	1	1.1	0.9;
	2038	1	0	0	0	0	1	1	0	345	1	1.1	0.9;
	1001	2	0	0	0	0	1	1	0	345	1	1.1	0.9;
	1210	1	0	0	0	0	1	1	0	345	1	1.1	0.9;
	1375	1	100	35	0	0	1	1	0	345	1	1.1	0.9;
	2688	1	0	0	0	0	1	1	0	345	1	1.1	0.9;
	2689	1	100	35	0	0	1	1	0	345	1	1.1	0.9;
	2684	2	0	0	0	0	1	1	0	345	1	1.1	0.9;
	2685	2	0	0	0	0	1	1	0	345	1	1.1	0.9;
	2686	1	0	0	0	0	1	1	0	345	1	1.1	0.9;
	2687	1	90	30	0	0	1	1	0	345	1	1.1	0.9;
	2680	1	100	35	0	0	1	1	0	345	1	1.1	0.9;
	1655	1	0	0	0	0	1	1	0	345	1	1.1	0.9;
	2682	1	125	50	0	0	1	1	0	345	1	1.1	0.9;
	2683	3	0	0	0	0	1	1	0	345	1	1.1	0.9;
	1374	1	0	0	0	0	1	1	0	345	1	1.1	0.9;
	99	1	125	50	0	0	1	1	0	345	1	1.1	0.9;
	98	1	0	0	0	0	1	1	0	345	1	1.1	0.9;
	91	3	0	0	0	0	1	1	0	345	1	1.1	0.9;
	90	1	125	50	0	0	1	1	0	345	1	1.1	0.9;
	93	2	0	0	0	0	1	1	0	345	1	1.1	0.9;
	92	2	0	0	0	0	1	1	0	345	1	1.1	0.9;
	95	1	90	30	0	0	1	1	0	345	1	1.1	0.9;
	94	1	0	0	0	0	1	1	0	345	1	1.1	0.9;
	97	1	100	35	0	0	1	1	0	345	1	1.1	0.9;
	96	1	0	0	0	0	1	1	0	345	1	1.1	0.9;
	1623	2	0	0	0	0	1	1	0	345	1	1.1	0.9;
	1622	2	0	0	0	0	1	1	0	345	1	1.1	0.9;
	1621	3	0	0	0	0	1	1	0	345	1	1.1	0.9;
	1620	1	125	50	0	0	1	1	0	345	1	1.1	0.9;
	1627	1	100	35	0	0	1	1	0	345	1	1.1	0.9;
	1626	1	0	0	0	0	1	1	0	345	1	1.1	0.9;
	1625	1	90	30	0	0	1	1	0	345	1	1.1	0.9;
	1624	1	0	0	0	0	1	1	0	345	1	1.1	0.9;
	1999	3	0	0	0	0	1	1	0	345	1	1.1	0.9;
	1998	1	125	50	0	0	1	1	0	345	1	1.1	0.9;
	1629	1	125	50	0	0	1	1	0	345	1	1.1	0.9;
	1377	1	125	50	0	0	1	1	0	345	1	1.1	0.9;
	559	3	0	0	0	0	1	1	0	345	1	1.1	0.9;
	558	1	125	50	0	0	1	1	0	345	1	1.1	0.9;
	555	1	0	0	0	0	1	1	0	345	1	1.1	0.9;
	554	1	90	30	0	0	1	1	0	345	1	1.1	0.9;
	557	1	0	0	0	0	1	1	0	345	1	1.1	0.9;
	556	1	100	35	0	0	1	1	0	345	1	1.1	0.9;
	551	2	0	0	0	0	1	1	0	345	1	1.1	0.9;
	550	3	0	0	0	0	1	1	0	345	1	1.1	0.9;
	553	1	0	0	0	0	1	1	0	345	1	1.1	0.9;
	552	2	0	0	0	0	1	1	0	345	1	1.1	0.9;
	1439	1	0	0	0	0	1	1	0	345	1	1.1	0.9;
	1199	2	0	0	0	0	1	1	0	345	1	1.1	0.9;
	1198	3	0	0	0	0	1	1	0	345	1	1.1	0.9;
	1191	2	0	0	0	0	1	1	0	345	1	1.1	0.9;
	1190	2	0	0	0	0	1	1	0	345	1	1.1	0.9;
	1193	1	90	30	0	0	1	1	0	345	1	1.1	0.9;
	1192	1	0	0	0	0	1	1	0	345	1	1.1	0.9;
	1195	1	100	35	0	0	1	1	0	345	1	1.1	0.9;
	1194	1	0	0	0	0	1	1	0	345	1	1.1	0.9;
	1197	1	125	50	0	0	1	1	0	345	1	1.1	0.9;
	1196	1	0	0	0	0	1	1	0	345	1	1.1	0.9;
	1759	1	0	0	0	0	1	1	0	345	1	1.1	0.9;
	1758	2	0	0	0	0	1	1	0	345	1	1.1	0.9;
	1757	2	0	0	0	0	1	1	0	345	1	1.1	0.9;
	1756	3	0	0	0	0	1	1	0	345	1	1.1	0.9;
	1755	1	125	50	0	0	1	1	0	345	1	1.1	0.9;
	1754	1	0	0	0	0	1	1	0	345	1	1.1	0.9;
	1753	1	100	35	0	0	1	1	0	345	1	1.1	0.9;
	1752	1	0	0	0	0	1	1	0	345	1	1.1	0.9;
	1751	1	90	30	0	0	1	1	0	345	1	1.1	0.9;
	1750	1	0	0	0	0	1	1	0	345	1	1.1	0.9;
	1177	1	100	35	0	0	1	1	0	345	1	1.1	0.9;
	1176	1	0	0	0	0	1	1	0	345	1	1.1	0.9;
	1175	1	90	30	0	0	1	1	0	345	1	1.1	0.9;
	1174	1	0	0	0	0	1	1	0	345	1	1.1	0.9;
	1173	2	0	0	0	0	1	1	0	345	1	1.1	0.9;
	1172	2	0	0	0	0	1	1	0	345	1	1.1	0.9;
	1171	3	0	0	0	0	1	1	0	345	1	1.1	0.9;
	1170	1	125	50	0	0	1	1	0	345	1	1.1	0.9;
	1179	1	125	50	0	0	1	1	0	345	1	1.1	0.9;
	1178	1	0	0	0	0	1	1	0	345	1	1.1	0.9;
	511	1	100	35	0	0	1	1	0	345	1	1.1	0.9;
	510	1	0	0	0	0	1	1	0	345	1	1.1	0.9;
	513	1	125	50	0	0	1	1	0	345	1	1.1	0.9;
	1285	1	100	35	0	0	1	1	0	345	1	1.1	0.9;
	1284	1	0	0	0	0	1	1	0	345	1	1.1	0.9;
	1287	1	125	50	0	0	1	1	0	345	1	1.1	0.9;
	512	1	0	0	0	0	1	1	0	345	1	1.1	0.9;
	1281	2	0	0	0	0	1	1	0	345	1	1.1	0.9;
	1280	2	0	0	0	0	1	1	0	345	1	1.1	0.9;
	1283	1	90	30	0	0	1	1	0	345	1	1.1	0.9;
	1282	1	0	0	0	0	1	1	0	345	1	1.1	0.9;
	1003	1	0	0	0	0	1	1	0	345	1	1.1	0.9;
	879	1	0	0	0	0	1	1	0	345	1	1.1	0.9;
	1289	2	0	0	0	0	1	1	0	345	1	1.1	0.9;
	1288	3	0	0	0	0	1	1	0	345	1	1.1	0.9;
	514	3	0	0	0	0	1	1	0	345	1	1.1	0.9;
	1579	1	0	0	0	0	1	1	0	345	1	1.1	0.9;
	1578	2	0	0	0	0	1	1	0	345	1	1.1	0.9;
	689	1	90	30	0	0	1	1	0	345	1	1.1	0.9;
	688	1	0	0	0	0	1	1	0	345	1	1.1	0.9;
	685	3	0	0	0	0	1	1	0	345	1	1.1	0.9;
	684	1	125	50	0	0	1	1	0	345	1	1.1	0.9;
	687	2	0	0	0	0	1	1	0	345	1	1.1	0.9;
	686	2	0	0	0	0	1	1	0	345	1	1.1	0.9;
	681	1	0	0	0	0	1	1	0	345	1	1.1	0.9;
	680	1	90	30	0	0	1	1	0	345	1	1.1	0.9;
	683	1	0	0	0	0	1	1	0	345	1	1.1	0.9;
	682	1	100	35	0	0	1	1	0	345	1	1.1	0.9;
	458	1	0	0	0	0	1	1	0	345	1	1.1	0.9;
	1349	1	0	0	0	0	1	1	0	345	1	1.1	0.9;
	621	1	125	50	0	0	1	1	0	345	1	1.1	0.9;
	873	1	125	50	0	0	1	1	0	345	1	1.1	0.9;
	1224	1	125	50	0	0	1	1	0	345	1	1.1	0.9;
	1223	1	0	0	0	0	1	1	0	345	1	1.1	0.9;
	1222	1	100	35	0	0	1	1	0	345	1	1.1	0.9;
	1221	1	0	0	0	0	1	1	0	345	1	1.1	0.9;
...
];

%% gen data
%	bus	Pg	Qg	Qmax	Qmin	Vg	mBase	status	Pmax	Pmin	Pc1	Pc2	Qc1min	Qc1max	Qc2min	Qc2max	ramp_agc	ramp_10	ramp_30	ramp_q	apf
mpc.gen = [
	2125	0	0	300	-300	1	100	1	250	10	0	0	0	0	0	0	0	0	0	0	0;
	2566	0	0	300	-300	1	100	1	250	10	0	0	0	0	0	0	0	0	0	0	0;
	1866	85	0	300	-300	1	100	1	270	10	0	0	0	0	0	0	0	0	0	0	0;
	2297	163	0	300	-300	1	100	1	300	10	0	0	0	0	0	0	0	0	0	0	0;
	2172	85	0	300	-300	1	100	1	270	10	0	0	0	0	0	0	0	0	0	0	0;
	1144	0	0	300	-300	1	100	1	250	10	0	0	0	0	0	0	0	0	0	0	0;
	1145	163	0	300	-300	1	100	1	300	10	0	0	0	0	0	0	0	0	0	0	0;
	1946	163	0	300	-300	1	100	1	300	10	0	0	0	0	0	0	0	0	0	0	0;
	1947	85	0	300	-300	1	100	1	270	10	0	0	0	0	0	0	0	0	0	0	0;
	1945	0	0	300	-300	1	100	1	250	10	0	0	0	0	0	0	0	0	0	0	0;
	344	163	0	300	-300	1	100	1	300	10	0	0	0	0	0	0	0	0	0	0	0;
	345	85	0	300	-300	1	100	1	270	10	0	0	0	0	0	0	0	0	0	0	0;
	343	0	0	300	-300	1	100	1	250	10	0	0	0	0	0	0	0	0	0	0	0;
	811	0	0	300	-300	1	100	1	250	10	0	0	0	0	0	0	0	0	0	0	0;
	812	163	0	300	-300	1	100	1	300	10	0	0	0	0	0	0	0	0	0	0	0;
	813	85	0	300	-300	1	100	1	270	10	0	0	0	0	0	0	0	0	0	0	0;
	1739	163	0	300	-300	1	100	1	300	10	0	0	0	0	0	0	0	0	0	0	0;
	1991	163	0	300	-300	1	100	1	300	10	0	0	0	0	0	0	0	0	0	0	0;
	1990	0	0	300	-300	1	100	1	250	10	0	0	0	0	0	0	0	0	0	0	0;
	1793	163	0	300	-300	1	100	1	300	10	0	0	0	0	0	0	0	0	0	0	0;
	1792	0	0	300	-300	1	100	1	250	10	0	0	0	0	0	0	0	0	0	0	0;
	714	85	0	300	-300	1	100	1	270	10	0	0	0	0	0	0	0	0	0	0	0;
	713	163	0	300	-300	1	100	1	300	10	0	0	0	0	0	0	0	0	0	0	0;
	712	0	0	300	-300	1	100	1	250	10	0	0	0	0	0	0	0	0	0	0	0;
	1794	85	0	300	-300	1	100	1	270	10	0	0	0	0	0	0	0	0	0	0	0;
	2073	85	0	300	-300	1	100	1	270	10	0	0	0	0	0	0	0	0	0	0	0;
	1495	0	0	300	-300	1	100	1	250	10	0	0	0	0	0	0	0	0	0	0	0;
	1496	163	0	300	-300	1	100	1	300	10	0	0	0	0	0	0	0	0	0	0	0;
	1497	85	0	300	-300	1	100	1	270	10	0	0	0	0	0	0	0	0	0	0	0;
	1702	0	0	300	-300	1	100	1	250	10	0	0	0	0	0	0	0	0	0	0	0;
	1703	163	0	300	-300	1	100	1	300	10	0	0	0	0	0	0	0	0	0	0	0;
	1704	85	0	300	-300	1	100	1	270	10	0	0	0	0	0	0	0	0	0	0	0;
	2370	85	0	300	-300	1	100	1	270	10	0	0	0	0	0	0	0	0	0	0	0;
	2316	85	0	300	-300	1	100	1	270	10	0	0	0	0	0	0	0	0	0	0	0;
	425	163	0	300	-300	1	100	1	300	10	0	0	0	0	0	0	0	0	0	0	0;
	1063	0	0	300	-300	1	100	1	250	10	0	0	0	0	0	0	0	0	0	0	0;
	2315	163	0	300	-300	1	100	1	300	10	0	0	0	0	0	0	0	0	0	0	0;
	1065	85	0	300	-300	1	100	1	270	10	0	0	0	0	0	0	0	0	0	0	0;
	1064	163	0	300	-300	1	100	1	300	10	0	0	0	0	0	0	0	0	0	0	0;
	910	0	0	300	-300	1	100	1	250	10	0	0	0	0	0	0	0	0	0	0	0;
	2333	163	0	300	-300	1	100	1	300	10	0	0	0	0	0	0	0	0	0	0	0;
	298	0	0	300	-300	1	100	1	250	10	0	0	0	0	0	0	0	0	0	0	0;
	299	163	0	300	-300	1	100	1	300	10	0	0	0	0	0	0	0	0	0	0	0;
	1667	163	0	300	-300	1	100	1	300	10	0	0	0	0	0	0	0	0	0	0	0;
	1666	0	0	300	-300	1	100	1	250	10	0	0	0	0	0	0	0	0	0	0	0;
	426	85	0	300	-300	1	100	1	270	10	0	0	0	0	0	0	0	0	0	0	0;
	290	163	0	300	-300	1	100	1	300	10	0	0	0	0	0	0	0	0	0	0	0;
	291	85	0	300	-300	1	100	1	270	10	0	0	0	0	0	0	0	0	0	0	0;
	1128	85	0	300	-300	1	100	1	270	10	0	0	0	0	0	0	0	0	0	0	0;
	2288	163	0	300	-300	1	100	1	300	10	0	0	0	0	0	0	0	0	0	0	0;
	595	0	0	300	-300	1	100	1	250	10	0	0	0	0	0	0	0	0	0	0	0;
	1082	163	0	300	-300	1	100	1	300	10	0	0	0	0	0	0	0	0	0	0	0;
	597	85	0	300	-300	1	100	1	270	10	0	0	0	0	0	0	0	0	0	0	0;
	596	163	0	300	-300	1	100	1	300	10	0	0	0	0	0	0	0	0	0	0	0;
	191	163	0	300	-300	1	100	1	300	10	0	0	0	0	0	0	0	0	0	0	0;
	190	0	0	300	-300	1	100	1	250	10	0	0	0	0	0	0	0	0	0	0	0;
	1126	0	0	300	-300	1	100	1	250	10	0	0	0	0	0	0	0	0	0	0	0;
	192	85	0	300	-300	1	100	1	270	10	0	0	0	0	0	0	0	0	0	0	0;
	271	0	0	300	-300	1	100	1	250	10	0	0	0	0	0	0	0	0	0	0	0;
	272	163	0	300	-300	1	100	1	300	10	0	0	0	0	0	0	0	0	0	0	0;
	273	85	0	300	-300	1	100	1	270	10	0	0	0	0	0	0	0	0	0	0	0;
	2405	163	0	300	-300	1	100	1	300	10	0	0	0	0	0	0	0	0	0	0	0;
	2541	85	0	300	-300	1	100	1	270	10	0	0	0	0	0	0	0	0	0	0	0;
	2540	163	0	300	-300	1	100	1	300	10	0	0	0	0	0	0	0	0	0	0	0;
	497	163	0	300	-300	1	100	1	300	10	0	0	0	0	0	0	0	0	0	0	0;
	2558	163	0	300	-300	1	100	1	300	10	0	0	0	0	0	0	0	0	0	0	0;
	2549	163	0	300	-300	1	100	1	300	10	0	0	0	0	0	0	0	0	0	0	0;
	2548	0	0	300	-300	1	100	1	250	10	0	0	0	0	0	0	0	0	0	0	0;
	524	163	0	300	-300	1	100	1	300	10	0	0	0	0	0	0	0	0	0	0	0;
	525	85	0	300	-300	1	100	1	270	10	0	0	0	0	0	0	0	0	0	0	0;
	2269	0	0	300	-300	1	100	1	250	10	0	0	0	0	0	0	0	0	0	0	0;
	1018	0	0	300	-300	1	100	1	250	10	0	0	0	0	0	0	0	0	0	0	0;
	1019	163	0	300	-300	1	100	1	300	10	0	0	0	0	0	0	0	0	0	0	0;
	2387	163	0	300	-300	1	100	1	300	10	0	0	0	0	0	0	0	0	0	0	0;
	523	0	0	300	-300	1	100	1	250	10	0	0	0	0	0	0	0	0	0	0	0;
	2262	85	0	300	-300	1	100	1	270	10	0	0	0	0	0	0	0	0	0	0	0;
	1541	163	0	300	-300	1	100	1	300	10	0	0	0	0	0	0	0	0	0	0	0;
	2260	0	0	300	-300	1	100	1	250	10	0	0	0	0	0	0	0	0	0	0	0;
	2261	163	0	300	-300	1	100	1	300	10	0	0	0	0	0	0	0	0	0	0	0;
	1010	163	0	300	-300	1	100	1	300	10	0	0	0	0	0	0	0	0	0	0	0;
	1011	85	0	300	-300	1	100	1	270	10	0	0	0	0	0	0	0	0	0	0	0;
	1405	0	0	300	-300	1	100	1	250	10	0	0	0	0	0	0	0	0	0	0	0;
	1234	0	0	300	-300	1	100	1	250	10	0	0	0	0	0	0	0	0	0	0	0;
	1235	163	0	300	-300	1	100	1	300	10	0	0	0	0	0	0	0	0	0	0	0;
	1236	85	0	300	-300	1	100	1	270	10	0	0	0	0	0	0	0	0	0	0	0;
	2441	163	0	300	-300	1	100	1	300	10	0	0	0	0	0	0	0	0	0	0	0;
	1452	85	0	300	-300	1	100	1	270	10	0	0	0	0	0	0	0	0	0	0	0;
	443	163	0	300	-300	1	100	1	300	10	0	0	0	0	0	0	0	0	0	0	0;
	442	0	0	300	-300	1	100	1	250	10	0	0	0	0	0	0	0	0	0	0	0;
	2449	0	0	300	-300	1	100	1	250	10	0	0	0	0	0	0	0	0	0	0	0;
	1333	0	0	300	-300	1	100	1	250	10	0	0	0	0	0	0	0	0	0	0	0;
	444	85	0	300	-300	1	100	1	270	10	0	0	0	0	0	0	0	0	0	0	0;
	2514	85	0	300	-300	1	100	1	270	10	0	0	0	0	0	0	0	0	0	0	0;
	2685	85	0	300	-300	1	100	1	270	10	0	0	0	0	0	0	0	0	0	0	0;
	109	0	0	300	-300	1	100	1	250	10	0	0	0	0	0	0	0	0	0	0	0;
	1135	0	0	300	-300	1	100	1	250	10	0	0	0	0	0	0	0	0	0	0	0;
	102	85	0	300	-300	1	100	1	270	10	0	0	0	0	0	0	0	0	0	0	0;
	1542	85	0	300	-300	1	100	1	270	10	0	0	0	0	0	0	0	0	0	0	0;
	100	0	0	300	-300	1	100	1	250	10	0	0	0	0	0	0	0	0	0	0	0;
	101	163	0	300	-300	1	100	1	300	10	0	0	0	0	0	0	0	0	0	0	0;
	902	163	0	300	-300	1	100	1	300	10	0	0	0	0	0	0	0	0	0	0	0;
	903	85	0	300	-300	1	100	1	270	10	0	0	0	0	0	0	0	0	0	0	0;
	39	85	0	300	-300	1	100	1	270	10	0	0	0	0	0	0	0	0	0	0	0;
	38	163	0	300	-300	1	100	1	300	10	0	0	0	0	0	0	0	0	0	0	0;
	1540	0	0	300	-300	1	100	1	250	10	0	0	0	0	0	0	0	0	0	0	0;
	30	85	0	300	-300	1	100	1	270	10	0	0	0	0	0	0	0	0	0	0	0;
	37	0	0	300	-300	1	100	1	250	10	0	0	0	0	0	0	0	0	0	0	0;
	1846	0	0	300	-300	1	100	1	250	10	0	0	0	0	0	0	0	0	0	0	0;
	641	163	0	300	-300	1	100	1	300	10	0	0	0	0	0	0	0	0	0	0	0;
	640	0	0	300	-300	1	100	1	250	10	0	0	0	0	0	0	0	0	0	0	0;
	1243	0	0	300	-300	1	100	1	250	10	0	0	0	0	0	0	0	0	0	0	0;
	642	85	0	300	-300	1	100	1	270	10	0	0	0	0	0	0	0	0	0	0	0;
	1245	85	0	300	-300	1	100	1	270	10	0	0	0	0	0	0	0	0	0	0	0;
	1244	163	0	300	-300	1	100	1	300	10	0	0	0	0	0	0	0	0	0	0	0;
	1531	0	0	300	-300	1	100	1	250	10	0	0	0	0	0	0	0	0	0	0	0;
	649	0	0	300	-300	1	100	1	250	10	0	0	0	0	0	0	0	0	0	0	0;
	434	163	0	300	-300	1	100	1	300	10	0	0	0	0	0	0	0	0	0	0	0;
	435	85	0	300	-300	1	100	1	270	10	0	0	0	0	0	0	0	0	0	0	0;
	2161	0	0	300	-300	1	100	1	250	10	0	0	0	0	0	0	0	0	0	0	0;
	433	0	0	300	-300	1	100	1	250	10	0	0	0	0	0	0	0	0	0	0	0;
	2163	85	0	300	-300	1	100	1	270	10	0	0	0	0	0	0	0	0	0	0	0;
	2162	163	0	300	-300	1	100	1	300	10	0	0	0	0	0	0	0	0	0	0	0;
	2613	85	0	300	-300	1	100	1	270	10	0	0	0	0	0	0	0	0	0	0	0;
	2612	163	0	300	-300	1	100	1	300	10	0	0	0	0	0	0	0	0	0	0	0;
	2611	0	0	300	-300	1	100	1	250	10	0	0	0	0	0	0	0	0	0	0	0;
	335	163	0	300	-300	1	100	1	300	10	0	0	0	0	0	0	0	0	0	0	0;
	334	0	0	300	-300	1	100	1	250	10	0	0	0	0	0	0	0	0	0	0	0;
	336	85	0	300	-300	1	100	1	270	10	0	0	0	0	0	0	0	0	0	0	0;
	1909	0	0	300	-300	1	100	1	250	10	0	0	0	0	0	0	0	0	0	0	0;
	1902	85	0	300	-300	1	100	1	270	10	0	0	0	0	0	0	0	0	0	0	0;
	1900	0	0	300	-300	1	100	1	250	10	0	0	0	0	0	0	0	0	0	0	0;
	1901	163	0	300	-300	1	100	1	300	10	0	0	0	0	0	0	0	0	0	0	0;
	856	0	0	300	-300	1	100	1	250	10	0	0	0	0	0	0	0	0	0	0	0;
	857	163	0	300	-300	1	100	1	300	10	0	0	0	0	0	0	0	0	0	0	0;
	858	85	0	300	-300	1	100	1	270	10	0	0	0	0	0	0	0	0	0	0	0;
	1523	163	0	300	-300	1	100	1	300	10	0	0	0	0	0	0	0	0	0	0	0;
	2684	163	0	300	-300	1	100	1	300	10	0	0	0	0	0	0	0	0	0	0	0;
	2388	85	0	300	-300	1	100	1	270	10	0	0	0	0	0	0	0	0	0	0	0;
	2289	85	0	300	-300	1	100	1	270	10	0	0	0	0	0	0	0	0	0	0	0;
	1000	0	0	300	-300	1	100	1	250	10	0	0	0	0	0	0	0	0	0	0	0;
	2046	85	0	300	-300	1	100	1	270	10	0	0	0	0	0	0	0	0	0	0	0;
	91	0	0	300	-300	1	100	1	250	10	0	0	0	0	0	0	0	0	0	0	0;
	2271	85	0	300	-300	1	100	1	270	10	0	0	0	0	0	0	0	0	0	0	0;
	93	85	0	300	-300	1	100	1	270	10	0	0	0	0	0	0	0	0	0	0	0;
	92	163	0	300	-300	1	100	1	300	10	0	0	0	0	0	0	0	0	0	0	0;
	2154	85	0	300	-300	1	100	1	270	10	0	0	0	0	0	0	0	0	0	0	0;
	2270	163	0	300	-300	1	100	1	300	10	0	0	0	0	0	0	0	0	0	0	0;
	1623	85	0	300	-300	1	100	1	270	10	0	0	0	0	0	0	0	0	0	0	0;
	1622	163	0	300	-300	1	100	1	300	10	0	0	0	0	0	0	0	0	0	0	0;
	1621	0	0	300	-300	1	100	1	250	10	0	0	0	0	0	0	0	0	0	0	0;
	1992	85	0	300	-300	1	100	1	270	10	0	0	0	0	0	0	0	0	0	0	0;
	1999	0	0	300	-300	1	100	1	250	10	0	0	0	0	0	0	0	0	0	0	0;
	2683	0	0	300	-300	1	100	1	250	10	0	0	0	0	0	0	0	0	0	0	0;
	2577	85	0	300	-300	1	100	1	270	10	0	0	0	0	0	0	0	0	0	0	0;
	740	163	0	300	-300	1	100	1	300	10	0	0	0	0	0	0	0	0	0	0	0;
	741	85	0	300	-300	1	100	1	270	10	0	0	0	0	0	0	0	0	0	0	0;
	559	0	0	300	-300	1	100	1	250	10	0	0	0	0	0	0	0	0	0	0	0;
	748	0	0	300	-300	1	100	1	250	10	0	0	0	0	0	0	0	0	0	0	0;
	749	163	0	300	-300	1	100	1	300	10	0	0	0	0	0	0	0	0	0	0	0;
	551	163	0	300	-300	1	100	1	300	10	0	0	0	0	0	0	0	0	0	0	0;
	550	0	0	300	-300	1	100	1	250	10	0	0	0	0	0	0	0	0	0	0	0;
	552	85	0	300	-300	1	100	1	270	10	0	0	0	0	0	0	0	0	0	0	0;
	235	0	0	300	-300	1	100	1	250	10	0	0	0	0	0	0	0	0	0	0	0;
	236	163	0	300	-300	1	100	1	300	10	0	0	0	0	0	0	0	0	0	0	0;
	237	85	0	300	-300	1	100	1	270	10	0	0	0	0	0	0	0	0	0	0	0;
	1351	0	0	300	-300	1	100	1	250	10	0	0	0	0	0	0	0	0	0	0	0;
	2531	163	0	300	-300	1	100	1	300	10	0	0	0	0	0	0	0	0	0	0	0;
	1199	163	0	300	-300	1	100	1	300	10	0	0	0	0	0	0	0	0	0	0	0;
	1198	0	0	300	-300	1	100	1	250	10	0	0	0	0	0	0	0	0	0	0	0;
	1054	0	0	300	-300	1	100	1	250	10	0	0	0	0	0	0	0	0	0	0	0;
	1055	163	0	300	-300	1	100	1	300	10	0	0	0	0	0	0	0	0	0	0	0;
	1056	85	0	300	-300	1	100	1	270	10	0	0	0	0	0	0	0	0	0	0	0;
	2045	163	0	300	-300	1	100	1	300	10	0	0	0	0	0	0	0	0	0	0	0;
	1191	85	0	300	-300	1	100	1	270	10	0	0	0	0	0	0	0	0	0	0	0;
	1190	163	0	300	-300	1	100	1	300	10	0	0	0	0	0	0	0	0	0	0	0;
	2224	0	0	300	-300	1	100	1	250	10	0	0	0	0	0	0	0	0	0	0	0;
	2225	163	0	300	-300	1	100	1	300	10	0	0	0	0	0	0	0	0	0	0	0;
	1	0	0	300	-300	1	100	1	250	10	0	0	0	0	0	0	0	0	0	0	0;
	1694	163	0	300	-300	1	100	1	300	10	0	0	0	0	0	0	0	0	0	0	0;
	1695	85	0	300	-300	1	100	1	270	10	0	0	0	0	0	0	0	0	0	0	0;
	1693	0	0	300	-300	1	100	1	250	10	0	0	0	0	0	0	0	0	0	0	0;
	1758	85	0	300	-300	1	100	1	270	10	0	0	0	0	0	0	0	0	0	0	0;
	1757	163	0	300	-300	1	100	1	300	10	0	0	0	0	0	0	0	0	0	0	0;
	1756	0	0	300	-300	1	100	1	250	10	0	0	0	0	0	0	0	0	0	0	0;
	2595	85	0	300	-300	1	100	1	270	10	0	0	0	0	0	0	0	0	0	0	0;
	2674	0	0	300	-300	1	100	1	250	10	0	0	0	0	0	0	0	0	0	0	0;
	146	163	0	300	-300	1	100	1	300	10	0	0	0	0	0	0	0	0	0	0	0;
	147	85	0	300	-300	1	100	1	270	10	0	0	0	0	0	0	0	0	0	0	0;
	145	0	0	300	-300	1	100	1	250	10	0	0	0	0	0	0	0	0	0	0	0;
	1173	85	0	300	-300	1	100	1	270	10	0	0	0	0	0	0	0	0	0	0	0;
	1172	163	0	300	-300	1	100	1	300	10	0	0	0	0	0	0	0	0	0	0	0;
	1171	0	0	300	-300	1	100	1	250	10	0	0	0	0	0	0	0	0	0	0	0;
	1270	0	0	300	-300	1	100	1	250	10	0	0	0	0	0	0	0	0	0	0	0;
	613	0	0	300	-300	1	100	1	250	10	0	0	0	0	0	0	0	0	0	0	0;
	1272	85	0	300	-300	1	100	1	270	10	0	0	0	0	0	0	0	0	0	0	0;
	2676	85	0	300	-300	1	100	1	270	10	0	0	0	0	0	0	0	0	0	0	0;
	614	163	0	300	-300	1	100	1	300	10	0	0	0	0	0	0	0	0	0	0	0;
	615	85	0	300	-300	1	100	1	270	10	0	0	0	0	0	0	0	0	0	0	0;
	2341	0	0	300	-300	1	100	1	250	10	0	0	0	0	0	0	0	0	0	0	0;
	1884	85	0	300	-300	1	100	1	270	10	0	0	0	0	0	0	0	0	0	0	0;
...
];

%% branch data
%	fbus	tbus	r	x	b	rateA	rateB	rateC	ratio	angle	status	angmin	angmax
mpc.branch = [
	346	347	0.017	0.092	0.158	250	250	250	0	0	1	-360	360;
	347	348	0.039	0.17	0.358	150	150	150	0	0	1	-360	360;
	345	348	0	0.0586	0	300	300	300	0	0	1	-360	360;
	348	349	0.0119	0.1008	0.209	150	150	150	0	0	1	-360	360;
	341	335	0	0.0625	0	250	250	250	0	0	1	-360	360;
	341	342	0.032	0.161	0.306	250	250	250	0	0	1	-360	360;
	342	337	0.01	0.085	0.176	250	250	250	0	0	1	-360	360;
	343	346	0	0.0576	0	250	250	250	0	0	1	-360	360;
	349	350	0.0085	0.072	0.149	250	250	250	0	0	1	-360	360;
	350	344	0	0.0625	0	250	250	250	0	0	1	-360	360;
	1654	1655	0.0085	0.072	0.149	250	250	250	0	0	1	-360	360;
	2319	2320	0.0119	0.1008	0.209	150	150	150	0	0	1	-360	360;
	2320	2321	0.0085	0.072	0.149	250	250	250	0	0	1	-360	360;
	2318	2319	0.039	0.17	0.358	150	150	150	0	0	1	-360	360;
	2316	2319	0	0.0586	0	300	300	300	0	0	1	-360	360;
	2314	2317	0	0.0576	0	250	250	250	0	0	1	-360	360;
	2317	2318	0.017	0.092	0.158	250	250	250	0	0	1	-360	360;
	2312	2313	0.032	0.161	0.306	250	250	250	0	0	1	-360	360;
	2313	2308	0.01	0.085	0.176	250	250	250	0	0	1	-360	360;
	2311	2312	0.0085	0.072	0.149	250	250	250	0	0	1	-360	360;
	2312	2306	0	0.0625	0	250	250	250	0	0	1	-360	360;
	298	301	0	0.0576	0	250	250	250	0	0	1	-360	360;
	301	302	0.017	0.092	0.158	250	250	250	0	0	1	-360	360;
	296	297	0.032	0.161	0.306	250	250	250	0	0	1	-360	360;
	297	292	0.01	0.085	0.176	250	250	250	0	0	1	-360	360;
	295	296	0.0085	0.072	0.149	250	250	250	0	0	1	-360	360;
	296	290	0	0.0625	0	250	250	250	0	0	1	-360	360;
	291	294	0	0.0586	0	300	300	300	0	0	1	-360	360;
	294	295	0.0119	0.1008	0.209	150	150	150	0	0	1	-360	360;
	292	293	0.017	0.092	0.158	250	250	250	0	0	1	-360	360;
	293	294	0.039	0.17	0.358	150	150	150	0	0	1	-360	360;
	2148	2149	0.0119	0.1008	0.209	150	150	150	0	0	1	-360	360;
	270	265	0.01	0.085	0.176	250	250	250	0	0	1	-360	360;
	271	274	0	0.0576	0	250	250	250	0	0	1	-360	360;
	274	275	0.017	0.092	0.158	250	250	250	0	0	1	-360	360;
	275	276	0.039	0.17	0.358	150	150	150	0	0	1	-360	360;
	273	276	0	0.0586	0	300	300	300	0	0	1	-360	360;
	276	277	0.0119	0.1008	0.209	150	150	150	0	0	1	-360	360;
	277	278	0.0085	0.072	0.149	250	250	250	0	0	1	-360	360;
	278	272	0	0.0625	0	250	250	250	0	0	1	-360	360;
	278	279	0.032	0.161	0.306	250	250	250	0	0	1	-360	360;
	279	274	0.01	0.085	0.176	250	250	250	0	0	1	-360	360;
	1781	1775	0	0.0625	0	250	250	250	0	0	1	-360	360;
	2145	2148	0	0.0586	0	300	300	300	0	0	1	-360	360;
	2268	2263	0.01	0.085	0.176	250	250	250	0	0	1	-360	360;
	2269	2272	0	0.0576	0	250	250	250	0	0	1	-360	360;
	2264	2265	0.039	0.17	0.358	150	150	150	0	0	1	-360	360;
	2262	2265	0	0.0586	0	300	300	300	0	0	1	-360	360;
	2260	2263	0	0.0576	0	250	250	250	0	0	1	-360	360;
	2263	2264	0.017	0.092	0.158	250	250	250	0	0	1	-360	360;
	2267	2261	0	0.0625	0	250	250	250	0	0	1	-360	360;
	2267	2268	0.032	0.161	0.306	250	250	250	0	0	1	-360	360;
	2265	2266	0.0119	0.1008	0.209	150	150	150	0	0	1	-360	360;
	2266	2267	0.0085	0.072	0.149	250	250	250	0	0	1	-360	360;
	2444	2445	0.039	0.17	0.358	150	150	150	0	0	1	-360	360;
	2442	2445	0	0.0586	0	300	300	300	0	0	1	-360	360;
	2440	2443	0	0.0576	0	250	250	250	0	0	1	-360	360;
	2443	2444	0.017	0.092	0.158	250	250	250	0	0	1	-360	360;
	1781	1782	0.032	0.161	0.306	250	250	250	0	0	1	-360	360;
	2447	2448	0.032	0.161	0.306	250	250	250	0	0	1	-360	360;
	2445	2446	0.0119	0.1008	0.209	150	150	150	0	0	1	-360	360;
	2446	2447	0.0085	0.072	0.149	250	250	250	0	0	1	-360	360;
	2448	2443	0.01	0.085	0.176	250	250	250	0	0	1	-360	360;
	2449	2452	0	0.0576	0	250	250	250	0	0	1	-360	360;
	2191	2192	0.017	0.092	0.158	250	250	250	0	0	1	-360	360;
	108	103	0.01	0.085	0.176	250	250	250	0	0	1	-360	360;
	109	112	0	0.0576	0	250	250	250	0	0	1	-360	360;
	104	105	0.039	0.17	0.358	150	150	150	0	0	1	-360	360;
	102	105	0	0.0586	0	300	300	300	0	0	1	-360	360;
	100	103	0	0.0576	0	250	250	250	0	0	1	-360	360;
	103	104	0.017	0.092	0.158	250	250	250	0	0	1	-360	360;
	107	101	0	0.0625	0	250	250	250	0	0	1	-360	360;
	107	108	0.032	0.161	0.306	250	250	250	0	0	1	-360	360;
	105	106	0.0119	0.1008	0.209	150	150	150	0	0	1	-360	360;
	106	107	0.0085	0.072	0.149	250	250	250	0	0	1	-360	360;
	2048	2049	0.039	0.17	0.358	150	150	150	0	0	1	-360	360;
	2046	2049	0	0.0586	0	300	300	300	0	0	1	-360	360;
	2044	2047	0	0.0576	0	250	250	250	0	0	1	-360	360;
	2047	2048	0.017	0.092	0.158	250	250	250	0	0	1	-360	360;
	2042	2043	0.032	0.161	0.306	250	250	250	0	0	1	-360	360;
	2043	2038	0.01	0.085	0.176	250	250	250	0	0	1	-360	360;
	2041	2042	0.0085	0.072	0.149	250	250	250	0	0	1	-360	360;
	2042	2036	0	0.0625	0	250	250	250	0	0	1	-360	360;
	2049	2050	0.0119	0.1008	0.209	150	150	150	0	0	1	-360	360;
	2050	2051	0.0085	0.072	0.149	250	250	250	0	0	1	-360	360;
	1371	1374	0	0.0586	0	300	300	300	0	0	1	-360	360;
	2037	2040	0	0.0586	0	300	300	300	0	0	1	-360	360;
	1003	1004	0.017	0.092	0.158	250	250	250	0	0	1	-360	360;
	1209	1212	0	0.0586	0	300	300	300	0	0	1	-360	360;
	1376	1370	0	0.0625	0	250	250	250	0	0	1	-360	360;
	2689	2690	0.0085	0.072	0.149	250	250	250	0	0	1	-360	360;
	2690	2684	0	0.0625	0	250	250	250	0	0	1	-360	360;
	2686	2687	0.017	0.092	0.158	250	250	250	0	0	1	-360	360;
	2687	2688	0.039	0.17	0.358	150	150	150	0	0	1	-360	360;
	2685	2688	0	0.0586	0	300	300	300	0	0	1	-360	360;
	2688	2689	0.0119	0.1008	0.209	150	150	150	0	0	1	-360	360;
	2681	2675	0	0.0625	0	250	250	250	0	0	1	-360	360;
	1655	1656	0.032	0.161	0.306	250	250	250	0	0	1	-360	360;
	2682	2677	0.01	0.085	0.176	250	250	250	0	0	1	-360	360;
	2683	2686	0	0.0576	0	250	250	250	0	0	1	-360	360;
	1375	1376	0.0085	0.072	0.149	250	250	250	0	0	1	-360	360;
	99	94	0.01	0.085	0.176	250	250	250	0	0	1	-360	360;
	98	99	0.032	0.161	0.306	250	250	250	0	0	1	-360	360;
	91	94	0	0.0576	0	250	250	250	0	0	1	-360	360;
	90	85	0.01	0.085	0.176	250	250	250	0	0	1	-360	360;
	95	96	0.039	0.17	0.358	150	150	150	0	0	1	-360	360;
	94	95	0.017	0.092	0.158	250	250	250	0	0	1	-360	360;
	96	97	0.0119	0.1008	0.209	150	150	150	0	0	1	-360	360;
	93	96	0	0.0586	0	300	300	300	0	0	1	-360	360;
	98	92	0	0.0625	0	250	250	250	0	0	1	-360	360;
	97	98	0.0085	0.072	0.149	250	250	250	0	0	1	-360	360;
	1625	1626	0.039	0.17	0.358	150	150	150	0	0	1	-360	360;
	1624	1625	0.017	0.092	0.158	250	250	250	0	0	1	-360	360;
	1621	1624	0	0.0576	0	250	250	250	0	0	1	-360	360;
	1620	1615	0.01	0.085	0.176	250	250	250	0	0	1	-360	360;
	1628	1622	0	0.0625	0	250	250	250	0	0	1	-360	360;
	1627	1628	0.0085	0.072	0.149	250	250	250	0	0	1	-360	360;
	1626	1627	0.0119	0.1008	0.209	150	150	150	0	0	1	-360	360;
	1623	1626	0	0.0586	0	300	300	300	0	0	1	-360	360;
	1999	2002	0	0.0576	0	250	250	250	0	0	1	-360	360;
	1998	1993	0.01	0.085	0.176	250	250	250	0	0	1	-360	360;
	1629	1624	0.01	0.085	0.176	250	250	250	0	0	1	-360	360;
	1377	1372	0.01	0.085	0.176	250	250	250	0	0	1	-360	360;
	559	562	0	0.0576	0	250	250	250	0	0	1	-360	360;
	558	553	0.01	0.085	0.176	250	250	250	0	0	1	-360	360;
	556	557	0.0085	0.072	0.149	250	250	250	0	0	1	-360	360;
	555	556	0.0119	0.1008	0.209	150	150	150	0	0	1	-360	360;
	557	558	0.032	0.161	0.306	250	250	250	0	0	1	-360	360;
	557	551	0	0.0625	0	250	250	250	0	0	1	-360	360;
	553	554	0.017	0.092	0.158	250	250	250	0	0	1	-360	360;
	550	553	0	0.0576	0	250	250	250	0	0	1	-360	360;
	552	555	0	0.0586	0	300	300	300	0	0	1	-360	360;
	554	555	0.039	0.17	0.358	150	150	150	0	0	1	-360	360;
	1439	1440	0.032	0.161	0.306	250	250	250	0	0	1	-360	360;
	1201	1202	0.017	0.092	0.158	250	250	250	0	0	1	-360	360;
	1198	1201	0	0.0576	0	250	250	250	0	0	1	-360	360;
	1193	1194	0.039	0.17	0.358	150	150	150	0	0	1	-360	360;
	1192	1193	0.017	0.092	0.158	250	250	250	0	0	1	-360	360;
	1194	1195	0.0119	0.1008	0.209	150	150	150	0	0	1	-360	360;
	1191	1194	0	0.0586	0	300	300	300	0	0	1	-360	360;
	1196	1190	0	0.0625	0	250	250	250	0	0	1	-360	360;
	1195	1196	0.0085	0.072	0.149	250	250	250	0	0	1	-360	360;
	1197	1192	0.01	0.085	0.176	250	250	250	0	0	1	-360	360;
	1196	1197	0.032	0.161	0.306	250	250	250	0	0	1	-360	360;
	1758	1761	0	0.0586	0	300	300	300	0	0	1	-360	360;
	1760	1761	0.039	0.17	0.358	150	150	150	0	0	1	-360	360;
	1759	1760	0.017	0.092	0.158	250	250	250	0	0	1	-360	360;
	1756	1759	0	0.0576	0	250	250	250	0	0	1	-360	360;
	1755	1750	0.01	0.085	0.176	250	250	250	0	0	1	-360	360;
	1754	1755	0.032	0.161	0.306	250	250	250	0	0	1	-360	360;
	1754	1748	0	0.0625	0	250	250	250	0	0	1	-360	360;
	1753	1754	0.0085	0.072	0.149	250	250	250	0	0	1	-360	360;
	1752	1753	0.0119	0.1008	0.209	150	150	150	0	0	1	-360	360;
	1749	1752	0	0.0586	0	300	300	300	0	0	1	-360	360;
	1178	1172	0	0.0625	0	250	250	250	0	0	1	-360	360;
	1177	1178	0.0085	0.072	0.149	250	250	250	0	0	1	-360	360;
	1176	1177	0.0119	0.1008	0.209	150	150	150	0	0	1	-360	360;
	1173	1176	0	0.0586	0	300	300	300	0	0	1	-360	360;
	1175	1176	0.039	0.17	0.358	150	150	150	0	0	1	-360	360;
	1174	1175	0.017	0.092	0.158	250	250	250	0	0	1	-360	360;
	1171	1174	0	0.0576	0	250	250	250	0	0	1	-360	360;
	1170	1165	0.01	0.085	0.176	250	250	250	0	0	1	-360	360;
	1179	1174	0.01	0.085	0.176	250	250	250	0	0	1	-360	360;
	1178	1179	0.032	0.161	0.306	250	250	250	0	0	1	-360	360;
	512	506	0	0.0625	0	250	250	250	0	0	1	-360	360;
	511	512	0.0085	0.072	0.149	250	250	250	0	0	1	-360	360;
	513	508	0.01	0.085	0.176	250	250	250	0	0	1	-360	360;
	1286	1280	0	0.0625	0	250	250	250	0	0	1	-360	360;
	1285	1286	0.0085	0.072	0.149	250	250	250	0	0	1	-360	360;
	1287	1282	0.01	0.085	0.176	250	250	250	0	0	1	-360	360;
	512	513	0.032	0.161	0.306	250	250	250	0	0	1	-360	360;
	1283	1284	0.039	0.17	0.358	150	150	150	0	0	1	-360	360;
	1282	1283	0.017	0.092	0.158	250	250	250	0	0	1	-360	360;
	1284	1285	0.0119	0.1008	0.209	150	150	150	0	0	1	-360	360;
	1281	1284	0	0.0586	0	300	300	300	0	0	1	-360	360;
	1002	1005	0	0.0586	0	300	300	300	0	0	1	-360	360;
	880	881	0.0085	0.072	0.149	250	250	250	0	0	1	-360	360;
	1291	1292	0.017	0.092	0.158	250	250	250	0	0	1	-360	360;
	1288	1291	0	0.0576	0	250	250	250	0	0	1	-360	360;
	514	517	0	0.0576	0	250	250	250	0	0	1	-360	360;
	1578	1581	0	0.0586	0	300	300	300	0	0	1	-360	360;
	1580	1581	0.039	0.17	0.358	150	150	150	0	0	1	-360	360;
	690	691	0.0119	0.1008	0.209	150	150	150	0	0	1	-360	360;
	687	690	0	0.0586	0	300	300	300	0	0	1	-360	360;
	685	688	0	0.0576	0	250	250	250	0	0	1	-360	360;
	684	679	0.01	0.085	0.176	250	250	250	0	0	1	-360	360;
	689	690	0.039	0.17	0.358	150	150	150	0	0	1	-360	360;
	688	689	0.017	0.092	0.158	250	250	250	0	0	1	-360	360;
	682	683	0.0085	0.072	0.149	250	250	250	0	0	1	-360	360;
	681	682	0.0119	0.1008	0.209	150	150	150	0	0	1	-360	360;
	683	684	0.032	0.161	0.306	250	250	250	0	0	1	-360	360;
	683	677	0	0.0625	0	250	250	250	0	0	1	-360	360;
	458	459	0.032	0.161	0.306	250	250	250	0	0	1	-360	360;
	1349	1350	0.032	0.161	0.306	250	250	250	0	0	1	-360	360;
	621	616	0.01	0.085	0.176	250	250	250	0	0	1	-360	360;
	873	868	0.01	0.085	0.176	250	250	250	0	0	1	-360	360;
	1224	1219	0.01	0.085	0.176	250	250	250	0	0	1	-360	360;
	1223	1224	0.032	0.161	0.306	250	250	250	0	0	1	-360	360;
	1223	1217	0	0.0625	0	250	250	250	0	0	1	-360	360;
	1222	1223	0.0085	0.072	0.149	250	250	250	0	0	1	-360	360;
...
];

